TITLE

*Set the defaults for precision simulations
DEFAULTS                                                              PRECISIO
#define kin_E 100
#define tar_len 80
#define beam_sigma 0.5
!@what.1=3*beam_sigma
#define tar_radius 1.5
*Define the beam characteristics
!@what.4=-beam_sigma*fwhm
!@what.5=-beam_sigma * fwhm
BEAM         -$kin_E                      -1.17741  -1.17741
*Define the beam position
BEAMPOS
GEOBEGIN                                                              COMBNAME
    0    0          
*Black body
SPH blkbody    0.0 0.0 0.0 100000.0
*Void sphere
SPH void       0.0 0.0 0.0 10000.0
*Cylindrical target
RCC target     0.0 0.0 0.0 0.0 0.0 10.0 5.0
END
*Black hole
BLKBODY      5 +blkbody -void
*Void around
VOID         5 +void -target
*Target
TARGET       5 +target
END
GEOEND
MATERIAL           6                 1.7                              GRAPHITE
MAT-PROP                            78.0  GRAPHITE
MAT-PROP        31.0                      GRAPHITE                    DPA-ENER
STERNHEI       3.155     0.048    2.5387   0.20762    2.9532      0.14GRAPHITE
*..+....1....+....2....+....3....+....4....+....5....+....6....+....7..
ASSIGNMA    BLCKHOLE   BLKBODY
ASSIGNMA      VACUUM      VOID
ASSIGNMA    GRAPHITE    TARGET
USRBDX             1     KAON+       -21    TARGET      VOID         1kp
USRBDX        $kin_E         0       100                               &
USRBDX             1     KAON-       -21    TARGET      VOID         1km
USRBDX        $kin_E         0       100                               &
USRBDX             1     PION+       -21    TARGET      VOID         1pip
USRBDX        $kin_E         0       100                               &
USRBDX             1     PION-       -21    TARGET      VOID         1pim
USRBDX        $kin_E         0       100                               &
*Set the random number seed
RANDOMIZ         1.0
*Set the number of primary histories to be simulated in the run
START
STOP
